Version 4
SHEET 1 904 720
WIRE -144 -304 -1232 -304
WIRE -144 -224 -144 -304
WIRE -144 -224 -656 -224
WIRE 64 -224 -144 -224
WIRE -144 -160 -144 -224
WIRE -656 64 -656 -64
WIRE -1232 224 -1232 -304
WIRE -1088 224 -1232 224
WIRE -800 224 -928 224
WIRE -656 224 -656 144
WIRE -656 224 -720 224
WIRE -576 224 -656 224
WIRE -304 224 -496 224
WIRE 64 224 64 -224
WIRE 64 224 -144 224
WIRE -656 320 -656 224
FLAG -656 320 0
FLAG -144 -160 0
SYMBOL voltage -656 48 R0
WINDOW 3 42 86 Left 2
SYMATTR InstName V1
SYMATTR Value SINE(0 110 60 0 0 0)
SYMBOL voltage -480 224 R90
WINDOW 0 -32 56 VBottom 2
WINDOW 3 53 -5 VTop 2
SYMATTR InstName V2
SYMATTR Value SINE(0 110 60 0 0 120)
SYMBOL voltage -816 224 R270
WINDOW 0 32 56 VTop 2
WINDOW 3 89 -11 VBottom 2
SYMATTR InstName V3
SYMATTR Value SINE(0 110 60 0 0 240)
SYMBOL res -672 -160 R0
SYMATTR InstName R1
SYMBOL res -208 208 R90
WINDOW 0 0 56 VBottom 2
WINDOW 3 32 56 VTop 2
SYMATTR InstName R2
SYMBOL res -912 208 R90
WINDOW 0 0 56 VBottom 2
WINDOW 3 32 56 VTop 2
SYMATTR InstName R3
SYMBOL ind -640 -128 R180
WINDOW 0 36 80 Left 2
WINDOW 3 36 40 Left 2
SYMATTR InstName L1
SYMBOL ind -240 240 R270
WINDOW 0 32 56 VTop 2
WINDOW 3 5 56 VBottom 2
SYMATTR InstName L2
SYMBOL ind -1104 240 R270
WINDOW 0 32 56 VTop 2
WINDOW 3 5 56 VBottom 2
SYMATTR InstName L3
