Version 4
SHEET 1 904 896
WIRE -1568 144 -1920 144
WIRE -640 144 -1488 144
WIRE -1216 224 -1248 224
WIRE -1072 224 -1136 224
WIRE -1040 224 -1072 224
WIRE -928 224 -960 224
WIRE -816 224 -848 224
WIRE -752 224 -816 224
WIRE -640 224 -640 144
WIRE -640 224 -672 224
WIRE -432 224 -640 224
WIRE -1072 256 -1072 224
WIRE -816 256 -816 224
WIRE -640 288 -640 224
WIRE -432 352 -432 224
WIRE -1072 368 -1072 320
WIRE -816 368 -816 320
WIRE -1248 512 -1248 224
WIRE -432 528 -432 432
WIRE -336 528 -432 528
WIRE -1920 672 -1920 144
WIRE -1888 672 -1920 672
WIRE -1776 672 -1808 672
WIRE -1664 672 -1696 672
WIRE -1584 672 -1664 672
WIRE -1392 672 -1504 672
WIRE -1248 672 -1248 592
WIRE -1248 672 -1312 672
WIRE -1168 672 -1248 672
WIRE -720 672 -1088 672
WIRE -592 672 -640 672
WIRE -560 672 -592 672
WIRE -448 672 -480 672
WIRE -336 672 -336 528
WIRE -336 672 -368 672
WIRE -1920 704 -1920 672
WIRE -1664 704 -1664 672
WIRE -592 704 -592 672
WIRE -336 720 -336 672
WIRE -1248 768 -1248 672
WIRE -1920 816 -1920 768
WIRE -1664 816 -1664 768
WIRE -592 816 -592 768
WIRE -336 816 -336 784
FLAG -1248 768 0
FLAG -640 288 0
FLAG -1664 816 0
FLAG -1920 816 0
FLAG -816 368 0
FLAG -1072 368 0
FLAG -336 816 0
FLAG -592 816 0
SYMBOL voltage -1248 496 R0
WINDOW 3 42 86 Left 2
SYMATTR Value SINE(0 89.81 60 0 0 0)
SYMATTR InstName V1
SYMBOL voltage -1072 672 R90
WINDOW 0 -32 56 VBottom 2
WINDOW 3 53 -5 VTop 2
SYMATTR InstName V2
SYMATTR Value SINE(0 89.81 60 0 0 120)
SYMBOL voltage -1408 672 R270
WINDOW 0 32 56 VTop 2
WINDOW 3 89 -11 VBottom 2
SYMATTR InstName V3
SYMATTR Value SINE(0 89.81 60 0 0 240)
SYMBOL res -768 240 R270
WINDOW 0 32 56 VTop 2
WINDOW 3 0 56 VBottom 2
SYMATTR InstName R1
SYMATTR Value 5
SYMBOL res -416 448 R180
WINDOW 0 36 76 Left 2
WINDOW 3 36 40 Left 2
SYMATTR InstName R2
SYMATTR Value 5
SYMBOL res -1472 128 R90
WINDOW 0 0 56 VBottom 2
WINDOW 3 32 56 VTop 2
SYMATTR InstName R3
SYMATTR Value 5
SYMBOL ind -1232 240 R270
WINDOW 0 32 56 VTop 2
WINDOW 3 5 56 VBottom 2
SYMATTR InstName L1
SYMATTR Value 4.1484mH
SYMBOL ind -736 688 R270
WINDOW 0 32 56 VTop 2
WINDOW 3 5 56 VBottom 2
SYMATTR InstName L2
SYMATTR Value 4.1484mH
SYMBOL ind -1600 688 R270
WINDOW 0 32 56 VTop 2
WINDOW 3 5 56 VBottom 2
SYMATTR InstName L3
SYMATTR Value 4.1484mH
SYMBOL res -1904 688 R270
WINDOW 0 32 56 VTop 2
WINDOW 3 0 56 VBottom 2
SYMATTR InstName R4
SYMATTR Value 2.5
SYMBOL ind -1792 688 R270
WINDOW 0 32 56 VTop 2
WINDOW 3 5 56 VBottom 2
SYMATTR InstName L4
SYMATTR Value 10mH
SYMBOL res -1056 240 R270
WINDOW 0 32 56 VTop 2
WINDOW 3 0 56 VBottom 2
SYMATTR InstName R5
SYMATTR Value 2.5
SYMBOL ind -944 240 R270
WINDOW 0 32 56 VTop 2
WINDOW 3 5 56 VBottom 2
SYMATTR InstName L5
SYMATTR Value 10mH
SYMBOL res -576 688 R270
WINDOW 0 32 56 VTop 2
WINDOW 3 0 56 VBottom 2
SYMATTR InstName R6
SYMATTR Value 1.5
SYMBOL ind -464 688 R270
WINDOW 0 32 56 VTop 2
WINDOW 3 5 56 VBottom 2
SYMATTR InstName L6
SYMATTR Value 10mH
SYMBOL cap -1088 256 R0
SYMATTR InstName C1
SYMATTR Value 50µF
SYMBOL cap -832 256 R0
SYMATTR InstName C2
SYMATTR Value 50µF
SYMBOL cap -608 704 R0
SYMATTR InstName C3
SYMATTR Value 50µF
SYMBOL cap -352 720 R0
SYMATTR InstName C4
SYMATTR Value 50µF
SYMBOL cap -1936 704 R0
SYMATTR InstName C5
SYMATTR Value 50µF
SYMBOL cap -1680 704 R0
SYMATTR InstName C6
SYMATTR Value 50µF
TEXT -1376 880 Left 2 !.tran 0 1.075 1 0.00001
